[TITLE]

[JUNCTIONS]
;ID                      Elevation       Demand Pattern                 
 J0001                   77.427821522    1.3065104359 RES_PATTERN                ;
 J0002                   92.519685039    1.3065104359 RES_PATTERN                ;
 J0003                   92.519685039    1.3065104359 RES_PATTERN                ;
 J0004                   90.551181102    1.3065104359 RES_PATTERN                ;
 J0005                    91.86351706    1.3065104359 RES_PATTERN                ;
 J0006                   93.832020997    1.3065104359 RES_PATTERN                ;
 J0007                   86.286089239    1.3065104359 RES_PATTERN                ;
 J0008                   86.614173228    1.3065104359 RES_PATTERN                ;
 J0009                   84.645669291    1.3065104359 RES_PATTERN                ;
 J0010                   85.958005249    1.3065104359 RES_PATTERN                ;
 J0011                   91.207349081    1.3065104359 RES_PATTERN                ;
 J0012                   92.519685039    1.3065104359 RES_PATTERN                ;
 J0013                    103.0183727    1.3065104359 RES_PATTERN                ;
 J0014                    103.0183727    1.3065104359 RES_PATTERN                ;
 J0015                   83.005249344    1.3065104359 RES_PATTERN                ;
 J0016                   92.847769029    1.3065104359 RES_PATTERN                ;
 J0017                   100.39370079    1.3065104359 RES_PATTERN                ;
 J0018                   100.39370079    1.3065104359 RES_PATTERN                ;
 J0019                   89.895013123    1.3065104359 RES_PATTERN                ;
 J0020                   84.317585302    1.3065104359 RES_PATTERN                ;
 J0021                   87.270341207    1.3065104359 RES_PATTERN                ;
 J0022                    78.74015748    1.3065104359 RES_PATTERN                ;
 J0023                    78.74015748    1.3065104359 RES_PATTERN                ;
 J0024                   72.834645669    1.3065104359 RES_PATTERN                ;
 J0025                   73.162729659    1.3065104359 RES_PATTERN                ;
 J0026                   89.238845144    1.3065104359 RES_PATTERN                ;
 J0027                   90.551181102    1.3065104359 RES_PATTERN                ;
 J0028                    91.86351706    1.3065104359 RES_PATTERN                ;
 J0029                   68.241469816    1.3065104359 RES_PATTERN                ;
 J0030                   68.897637795    1.3065104359 RES_PATTERN                ;
 J0031                   60.367454068    1.3065104359 RES_PATTERN                ;
 J0032                   61.023622047    1.3065104359 RES_PATTERN                ;
 J0033                   111.54855643    1.3065104359 RES_PATTERN                ;
 J0034                   111.54855643    1.3065104359 RES_PATTERN                ;
 J0035                   111.54855643    1.3065104359 RES_PATTERN                ;
 J0036                   111.54855643    1.3065104359 RES_PATTERN                ;
 J0039                   82.020997375    1.3065104359 RES_PATTERN                ;
 J0040                   82.677165354    1.3065104359 RES_PATTERN                ;
 J0041                    78.74015748    1.3065104359 RES_PATTERN                ;
 J0042                   91.535433071    1.3065104359 RES_PATTERN                ;
 J0043                   80.708661417    1.3065104359 RES_PATTERN                ;
 J0044                    78.74015748    1.3065104359 RES_PATTERN                ;
 J0045                    78.74015748    1.3065104359 RES_PATTERN                ;
 J0046                   83.005249344    1.3065104359 RES_PATTERN                ;
 J0047                    78.74015748    1.3065104359 RES_PATTERN                ;
 J0048                    78.74015748    1.3065104359 RES_PATTERN                ;
 J0049                   86.286089239    1.3065104359 RES_PATTERN                ;
 J0050                   86.614173228    1.3065104359 RES_PATTERN                ;
 J0051                   101.37795276    1.3065104359 RES_PATTERN                ;
 J0052                   99.737532808    1.3065104359 RES_PATTERN                ;
 J0053                   68.897637795    1.3065104359 RES_PATTERN                ;
 J0054                   64.960629921    1.3065104359 RES_PATTERN                ;
 J0055                   67.585301837    1.3065104359 RES_PATTERN                ;
 J0056                   66.272965879    1.3065104359 RES_PATTERN                ;
 J0057                   64.960629921    1.3065104359 RES_PATTERN                ;
 J0058                    100.0656168    1.3065104359 RES_PATTERN                ;
 J0059                   111.54855643    1.3065104359 RES_PATTERN                ;
 J0060                   111.54855643    1.3065104359 RES_PATTERN                ;
 J0061                   111.54855643    1.3065104359 RES_PATTERN                ;
 J0062                   111.54855643    1.3065104359 RES_PATTERN                ;
 J0063                   111.54855643    1.3065104359 RES_PATTERN                ;
 J0064                   111.54855643    1.3065104359 RES_PATTERN                ;
 J0065                   111.54855643    1.3065104359 RES_PATTERN                ;
 J0066                   111.54855643    1.3065104359 RES_PATTERN                ;
 J0067                   111.54855643    1.3065104359 RES_PATTERN                ;
 J0068                   111.54855643    1.3065104359 RES_PATTERN                ;
 J0069                   111.54855643    1.3065104359 RES_PATTERN                ;
 J0070                   111.54855643    1.3065104359 RES_PATTERN                ;
 J0071                   111.54855643    1.3065104359 RES_PATTERN                ;
 J0072                   111.54855643    1.3065104359 RES_PATTERN                ;
 J0073                   111.54855643    1.3065104359 RES_PATTERN                ;
 J0074                   111.54855643    1.3065104359 RES_PATTERN                ;
 J0075                   111.54855643    1.3065104359 RES_PATTERN                ;
 J0076                   111.54855643    1.3065104359 RES_PATTERN                ;
 J0077                   111.54855643    1.3065104359 RES_PATTERN                ;
 J0078                   111.54855643    1.3065104359 RES_PATTERN                ;
 J0079                   111.54855643    1.3065104359 RES_PATTERN                ;
 J0080                   111.54855643    1.3065104359 RES_PATTERN                ;
 J0081                   86.942257218    1.3065104359 RES_PATTERN                ;
 J0082                   86.942257218    1.3065104359 RES_PATTERN                ;
 J0083                   85.958005249    1.3065104359 RES_PATTERN                ;
 J0084                    85.30183727    1.3065104359 RES_PATTERN                ;
 J0085                    85.62992126    1.3065104359 RES_PATTERN                ;
 J0086                   86.614173228    1.3065104359 RES_PATTERN                ;
 J0087                   79.724409449    1.3065104359 RES_PATTERN                ;
 J0088                   79.724409449    1.3065104359 RES_PATTERN                ;
 J0089                   82.349081365    1.3065104359 RES_PATTERN                ;
 J0090                   80.708661417    1.3065104359 RES_PATTERN                ;
 J0100                   111.54855643    1.3065104359 RES_PATTERN                ;
 J0101                   111.54855643    1.3065104359 RES_PATTERN                ;
 J0121                    85.30183727    1.3065104359 RES_PATTERN                ;
 J0122                   84.645669291    1.3065104359 RES_PATTERN                ;
 J0123                   111.54855643    1.3065104359 RES_PATTERN                ;
 J0124                   111.54855643    1.3065104359 RES_PATTERN                ;
 J0125                   111.54855643    1.3065104359 RES_PATTERN                ;
 J0126                   101.04986877    1.3065104359 RES_PATTERN                ;
 J0127                   101.04986877    1.3065104359 RES_PATTERN                ;
 J0128                    103.0183727    1.3065104359 RES_PATTERN                ;
 J0129                    92.19160105    1.3065104359 RES_PATTERN                ;
 J0130                   94.160104987    1.3065104359 RES_PATTERN                ;
 J0131                   109.58005249    1.3065104359 RES_PATTERN                ;
 J0132                   109.58005249    1.3065104359 RES_PATTERN                ;
 J0133                   108.59580052    1.3065104359 RES_PATTERN                ;
 J0134                   95.800524934    1.3065104359 RES_PATTERN                ;
 J0136                   99.409448819    1.3065104359 RES_PATTERN                ;
 J0137                    98.42519685    1.3065104359 RES_PATTERN                ;
 J0138                   68.897637795    1.3065104359 RES_PATTERN                ;
 J0139                   97.440944882    1.3065104359 RES_PATTERN                ;
 J0140                   97.769028871    1.3065104359 RES_PATTERN                ;
 J0141                   84.317585302    1.3065104359 RES_PATTERN                ;
 J0142                    98.75328084    1.3065104359 RES_PATTERN                ;
 J0143                   96.784776903    1.3065104359 RES_PATTERN                ;
 J0144                   96.456692913    1.3065104359 RES_PATTERN                ;
 J0145                   96.784776903    1.3065104359 RES_PATTERN                ;
 J0146                   83.989501312    1.3065104359 RES_PATTERN                ;
 J0147                    78.74015748    1.3065104359 RES_PATTERN                ;
 J0148                    78.74015748    1.3065104359 RES_PATTERN                ;
 J0149                    78.74015748    1.3065104359 RES_PATTERN                ;
 J0150                    78.74015748    1.3065104359 RES_PATTERN                ;
 J0151                    78.74015748    1.3065104359 RES_PATTERN                ;
 J0152                   78.412073491    1.3065104359 RES_PATTERN                ;
 J0153                   79.396325459    1.3065104359 RES_PATTERN                ;
 J0154                   83.005249344    1.3065104359 RES_PATTERN                ;
 J0155                   92.519685039    1.3065104359 RES_PATTERN                ;
 J0156                   93.503937008    1.3065104359 RES_PATTERN                ;
 J0157                   81.036745407    1.3065104359 RES_PATTERN                ;
 J0158                   82.020997375    1.3065104359 RES_PATTERN                ;
 J0159                   111.54855643    1.3065104359 RES_PATTERN                ;
 J0160                   111.54855643    1.3065104359 RES_PATTERN                ;
 J0161                   75.131233596    1.3065104359 RES_PATTERN                ;
 J0162                   76.443569554    1.3065104359 RES_PATTERN                ;
 J0163                   70.209973753    1.3065104359 RES_PATTERN                ;
 J0164                   69.553805774    1.3065104359 RES_PATTERN                ;
 J0165                   70.209973753    1.3065104359 RES_PATTERN                ;
 J0166                    98.75328084    1.3065104359 RES_PATTERN                ;
 J0167                   99.409448819    1.3065104359 RES_PATTERN                ;
 J0168                   93.175853018    1.3065104359 RES_PATTERN                ;
 J0169                   93.503937008    1.3065104359 RES_PATTERN                ;
 J0170                   104.33070866    1.3065104359 RES_PATTERN                ;
 J0171                   88.910761155    1.3065104359 RES_PATTERN                ;
 J0172                   89.895013123    1.3065104359 RES_PATTERN                ;
 J0173                   88.910761155    1.3065104359 RES_PATTERN                ;
 J0174                   87.270341207    1.3065104359 RES_PATTERN                ;
 J0175                   111.54855643    1.3065104359 RES_PATTERN                ;
 J0176                   111.54855643    1.3065104359 RES_PATTERN                ;
 J0177                   111.54855643    1.3065104359 RES_PATTERN                ;
 J0178                   92.847769029    1.3065104359 RES_PATTERN                ;
 J0179                   89.895013123    1.3065104359 RES_PATTERN                ;
 J0180                   91.207349081    1.3065104359 RES_PATTERN                ;
 J0181                   94.488188976    1.3065104359 RES_PATTERN                ;
 J0182                   95.472440945    1.3065104359 RES_PATTERN                ;
 J0183                   82.020997375    1.3065104359 RES_PATTERN                ;
 J0184                   82.677165354    1.3065104359 RES_PATTERN                ;
 J0185                    78.74015748    1.3065104359 RES_PATTERN                ;
 J0186                   79.724409449    1.3065104359 RES_PATTERN                ;
 J0187                   98.097112861    1.3065104359 RES_PATTERN                ;
 J0188                   97.440944882    1.3065104359 RES_PATTERN                ;
 J0189                   89.895013123    1.3065104359 RES_PATTERN                ;
 J0190                   98.097112861    1.3065104359 RES_PATTERN                ;
 J0191                   70.209973753    1.3065104359 RES_PATTERN                ;
 J0192                   99.409448819    1.3065104359 RES_PATTERN                ;
 J0193                   89.238845144    1.3065104359 RES_PATTERN                ;
 J0194                   88.910761155    1.3065104359 RES_PATTERN                ;
 J0195                   82.677165354    1.3065104359 RES_PATTERN                ;
 J0196                   82.677165354    1.3065104359 RES_PATTERN                ;
 J0197                   86.286089239    1.3065104359 RES_PATTERN                ;
 J0198                   86.286089239    1.3065104359 RES_PATTERN                ;
 J0199                   98.097112861    1.3065104359 RES_PATTERN                ;
 J0200                    103.0183727    1.3065104359 RES_PATTERN                ;
 J0201                   84.317585302    1.3065104359 RES_PATTERN                ;
 J0202                   84.645669291    1.3065104359 RES_PATTERN                ;
 J0203                   73.162729659    1.3065104359 RES_PATTERN                ;
 J0204                   73.818897638    1.3065104359 RES_PATTERN                ;
 J0207                   111.54855643    1.3065104359 RES_PATTERN                ;
 J0208                   111.54855643    1.3065104359 RES_PATTERN                ;
 J0209                   111.54855643    1.3065104359 RES_PATTERN                ;
 J0211                   83.661417323    1.3065104359 RES_PATTERN                ;
 J0212                   84.317585302    1.3065104359 RES_PATTERN                ;
 J0213                    85.62992126    1.3065104359 RES_PATTERN                ;
 J0214                    85.30183727    1.3065104359 RES_PATTERN                ;
 J0215                   94.160104987    1.3065104359 RES_PATTERN                ;
 J0216                   93.503937008    1.3065104359 RES_PATTERN                ;
 J0217                   83.661417323    1.3065104359 RES_PATTERN                ;
 J0218                   83.333333333    1.3065104359 RES_PATTERN                ;
 J0219                    98.42519685    1.3065104359 RES_PATTERN                ;
 J0220                   94.160104987    1.3065104359 RES_PATTERN                ;
 J0221                   94.160104987    1.3065104359 RES_PATTERN                ;
 J0222                   90.223097113    1.3065104359 RES_PATTERN                ;
 J0223                   90.551181102    1.3065104359 RES_PATTERN                ;
 J0224                   93.175853018    1.3065104359 RES_PATTERN                ;
 J0225                   93.832020997    1.3065104359 RES_PATTERN                ;
 J0226                   89.895013123    1.3065104359 RES_PATTERN                ;
 J0227                   79.724409449    1.3065104359 RES_PATTERN                ;
 J0228                    78.74015748    1.3065104359 RES_PATTERN                ;
 J0229                    78.74015748    1.3065104359 RES_PATTERN                ;
 J0230                   111.54855643    1.3065104359 RES_PATTERN                ;
 J0231                   111.54855643    1.3065104359 RES_PATTERN                ;
 J0232                   90.879265092    1.3065104359 RES_PATTERN                ;
 J0233                   96.456692913    1.3065104359 RES_PATTERN                ;
 J0234                   97.112860892    1.3065104359 RES_PATTERN                ;
 J0237                   81.364829396    1.3065104359 RES_PATTERN                ;
 J0238                    91.86351706    1.3065104359 RES_PATTERN                ;
 J0239                    92.19160105    1.3065104359 RES_PATTERN                ;
 J0240                   80.708661417    1.3065104359 RES_PATTERN                ;
 J0241                   95.472440945    1.3065104359 RES_PATTERN                ;
 J0242                    79.06824147    1.3065104359 RES_PATTERN                ;
 J0243                   80.380577428    1.3065104359 RES_PATTERN                ;
 J0244                   94.816272966    1.3065104359 RES_PATTERN                ;
 J0245                   96.128608924    1.3065104359 RES_PATTERN                ;
 J0246                   93.175853018    1.3065104359 RES_PATTERN                ;
 J0247                   94.160104987    1.3065104359 RES_PATTERN                ;
 J0248                   68.569553806    1.3065104359 RES_PATTERN                ;
 J0249                   63.320209974    1.3065104359 RES_PATTERN                ;
 J0250                   64.304461942    1.3065104359 RES_PATTERN                ;
 J0251                   75.787401575    1.3065104359 RES_PATTERN                ;
 J0252                   75.787401575    1.3065104359 RES_PATTERN                ;
 J0253                    65.94488189    1.3065104359 RES_PATTERN                ;
 J0254                   66.929133858    1.3065104359 RES_PATTERN                ;
 J0255                   69.553805774    1.3065104359 RES_PATTERN                ;
 J0256                   74.803149606    1.3065104359 RES_PATTERN                ;
 J0257                   75.459317585    1.3065104359 RES_PATTERN                ;
 J0258                   63.320209974    1.3065104359 RES_PATTERN                ;
 J0259                   66.272965879    1.3065104359 RES_PATTERN                ;
 J0260                   70.538057743    1.3065104359 RES_PATTERN                ;
 J0265                   102.69028871    1.3065104359 RES_PATTERN                ;
 J0266                   101.37795276    1.3065104359 RES_PATTERN                ;
 J0267                   83.661417323    1.3065104359 RES_PATTERN                ;
 J0268                   83.333333333    1.3065104359 RES_PATTERN                ;
 J0269                   83.005249344    1.3065104359 RES_PATTERN                ;
 J0270                   94.160104987    1.3065104359 RES_PATTERN                ;
 J0271                   88.254593176    1.3065104359 RES_PATTERN                ;
 J0272                   88.254593176    1.3065104359 RES_PATTERN                ;
 J0273                   87.270341207    1.3065104359 RES_PATTERN                ;
 J0274                    85.62992126    1.3065104359 RES_PATTERN                ;
 J0275                   84.645669291    1.3065104359 RES_PATTERN                ;
 J0276                   67.585301837    1.3065104359 RES_PATTERN                ;
 J0277                   68.569553806    1.3065104359 RES_PATTERN                ;
 J0278                    91.86351706    1.3065104359 RES_PATTERN                ;
 J0279                   91.207349081    1.3065104359 RES_PATTERN                ;
 J0280                   92.847769029    1.3065104359 RES_PATTERN                ;
 J0281                    91.86351706    1.3065104359 RES_PATTERN                ;
 J0282                    78.74015748    1.3065104359 RES_PATTERN                ;
 J0283                   80.052493438    1.3065104359 RES_PATTERN                ;
 J0284                    78.74015748    1.3065104359 RES_PATTERN                ;
 J0285                    78.74015748    1.3065104359 RES_PATTERN                ;
 J0286                    78.74015748    1.3065104359 RES_PATTERN                ;
 J0287                   83.333333333    1.3065104359 RES_PATTERN                ;
 J0288                   97.112860892    1.3065104359 RES_PATTERN                ;
 J0289                   96.456692913    1.3065104359 RES_PATTERN                ;
 J0290                   98.097112861    1.3065104359 RES_PATTERN                ;
 J0291                   77.099737533    1.3065104359 RES_PATTERN                ;
 J0292                   75.131233596    1.3065104359 RES_PATTERN                ;
 J0293                   80.052493438    1.3065104359 RES_PATTERN                ;
 J0294                   82.677165354    1.3065104359 RES_PATTERN                ;
 J0295                   82.349081365    1.3065104359 RES_PATTERN                ;
 J0296                   83.005249344    1.3065104359 RES_PATTERN                ;
 J0297                   84.973753281    1.3065104359 RES_PATTERN                ;
 J0298                   84.317585302    1.3065104359 RES_PATTERN                ;
 J0299                    85.30183727    1.3065104359 RES_PATTERN                ;
 J0300                   83.989501312    1.3065104359 RES_PATTERN                ;
 J0301                   96.456692913    1.3065104359 RES_PATTERN                ;
 J0302                   95.144356955    1.3065104359 RES_PATTERN                ;
 J0303                   97.112860892    1.3065104359 RES_PATTERN                ;
 J0304                   96.128608924    1.3065104359 RES_PATTERN                ;
 J0305                   87.598425197    1.3065104359 RES_PATTERN                ;
 J0306                   88.582677165    1.3065104359 RES_PATTERN                ;
 J0307                   102.03412073    1.3065104359 RES_PATTERN                ;
 J0308                   102.03412073    1.3065104359 RES_PATTERN                ;
 J0309                   87.926509186    1.3065104359 RES_PATTERN                ;
 J0310                   94.488188976    1.3065104359 RES_PATTERN                ;
 J0311                   95.472440945    1.3065104359 RES_PATTERN                ;
 J0312                   93.175853018    1.3065104359 RES_PATTERN                ;
 J0313                   92.847769029    1.3065104359 RES_PATTERN                ;
 J0314                   74.803149606    1.3065104359 RES_PATTERN                ;
 J0315                   76.443569554    1.3065104359 RES_PATTERN                ;
 J0316                   83.005249344    1.3065104359 RES_PATTERN                ;
 J0317                   107.28346457    1.3065104359 RES_PATTERN                ;
 J0318                    78.74015748    1.3065104359 RES_PATTERN                ;
 J0319                   77.755905512    1.3065104359 RES_PATTERN                ;
 J0320                   93.175853018    1.3065104359 RES_PATTERN                ;
 J0321                   93.503937008    1.3065104359 RES_PATTERN                ;
 J0322                   84.973753281    1.3065104359 RES_PATTERN                ;
 J0323                   86.286089239    1.3065104359 RES_PATTERN                ;
 J0324                   89.566929134    1.3065104359 RES_PATTERN                ;
 J0325                   93.832020997    1.3065104359 RES_PATTERN                ;
 J0326                   95.144356955    1.3065104359 RES_PATTERN                ;
 J0327                   85.958005249    1.3065104359 RES_PATTERN                ;
 J0328                   89.566929134    1.3065104359 RES_PATTERN                ;
 J0329                   88.910761155    1.3065104359 RES_PATTERN                ;
 J0330                   92.519685039    1.3065104359 RES_PATTERN                ;
 J0331                   83.005249344    1.3065104359 RES_PATTERN                ;
 J0332                   84.317585302    1.3065104359 RES_PATTERN                ;
 J0333                    98.42519685    1.3065104359 RES_PATTERN                ;
 J0334                   100.39370079    1.3065104359 RES_PATTERN                ;
 J0335                   91.207349081    1.3065104359 RES_PATTERN                ;
 J0336                    91.86351706    1.3065104359 RES_PATTERN                ;
 J0337                   111.54855643    1.3065104359 RES_PATTERN                ;
 J0338                   111.54855643    1.3065104359 RES_PATTERN                ;
 J0339                   111.54855643    1.3065104359 RES_PATTERN                ;
 J0340                    78.74015748    1.3065104359 RES_PATTERN                ;
 J0341                   64.304461942    1.3065104359 RES_PATTERN                ;
 J0342                   63.648293963    1.3065104359 RES_PATTERN                ;
 J0343                    78.74015748    1.3065104359 RES_PATTERN                ;
 J0344                    78.74015748    1.3065104359 RES_PATTERN                ;
 J0345                    78.74015748    1.3065104359 RES_PATTERN                ;
 J0346                    78.74015748    1.3065104359 RES_PATTERN                ;
 J0347                   70.538057743    1.3065104359 RES_PATTERN                ;
 J0348                   74.475065617    1.3065104359 RES_PATTERN                ;
 J0349                   79.396325459    1.3065104359 RES_PATTERN                ;
 J0354                   109.58005249    1.3065104359 RES_PATTERN                ;
 J0355                   77.427821522    1.3065104359 RES_PATTERN                ;
 J0356                   79.724409449    1.3065104359 RES_PATTERN                ;
 J0357                   69.881889764    1.3065104359 RES_PATTERN                ;
 J0360                   94.160104987    1.3065104359 RES_PATTERN                ;
 J0361                   94.160104987    1.3065104359 RES_PATTERN                ;
 J0362                   111.54855643    1.3065104359 RES_PATTERN                ;
 J0363                   111.54855643    1.3065104359 RES_PATTERN                ;
 J0364                   100.39370079    1.3065104359 RES_PATTERN                ;
 J0365                    98.75328084    1.3065104359 RES_PATTERN                ;
 J0366                   101.04986877    1.3065104359 RES_PATTERN                ;
 J0367                   101.70603675    1.3065104359 RES_PATTERN                ;
 J0368                   100.39370079    1.3065104359 RES_PATTERN                ;
 J0369                    100.0656168    1.3065104359 RES_PATTERN                ;
 J0370                   99.409448819    1.3065104359 RES_PATTERN                ;
 J0371                    78.74015748    1.3065104359 RES_PATTERN                ;
 J0372                   79.396325459    1.3065104359 RES_PATTERN                ;
 J0373                   79.724409449    1.3065104359 RES_PATTERN                ;
 J0374                   73.818897638    1.3065104359 RES_PATTERN                ;
 J0375                   73.818897638    1.3065104359 RES_PATTERN                ;
 J0376                   111.54855643    1.3065104359 RES_PATTERN                ;
 J0377                   111.54855643    1.3065104359 RES_PATTERN                ;
 J0378                   111.54855643    1.3065104359 RES_PATTERN                ;
 J0379                   111.54855643    1.3065104359 RES_PATTERN                ;
 J0380                   111.54855643    1.3065104359 RES_PATTERN                ;
 J0381                   71.194225722    1.3065104359 RES_PATTERN                ;
 J0382                   70.866141732    1.3065104359 RES_PATTERN                ;
 J0391                    72.17847769    1.3065104359 RES_PATTERN                ;
 J0392                   95.144356955    1.3065104359 RES_PATTERN                ;
 J0393                   95.800524934    1.3065104359 RES_PATTERN                ;
 J0394                   79.396325459    1.3065104359 RES_PATTERN                ;
 J0395                   80.708661417    1.3065104359 RES_PATTERN                ;
 J0396                   79.724409449    1.3065104359 RES_PATTERN                ;
 J0397                   82.020997375    1.3065104359 RES_PATTERN                ;
 J0401                   111.54855643    1.3065104359 RES_PATTERN                ;
 J0402                   111.54855643    1.3065104359 RES_PATTERN                ;
 J0403                   80.708661417    1.3065104359 RES_PATTERN                ;
 J0404                   82.349081365    1.3065104359 RES_PATTERN                ;
 J0405                    91.86351706    1.3065104359 RES_PATTERN                ;
 J0406                   92.519685039    1.3065104359 RES_PATTERN                ;
 J0410                   111.54855643    1.3065104359 RES_PATTERN                ;
 J0411                   111.54855643    1.3065104359 RES_PATTERN                ;
 J0412                   79.396325459    1.3065104359 RES_PATTERN                ;
 J0413                   80.380577428    1.3065104359 RES_PATTERN                ;
 J0414                   80.052493438    1.3065104359 RES_PATTERN                ;
 J0415                   77.427821522    1.3065104359 RES_PATTERN                ;
 J0416                   81.036745407    1.3065104359 RES_PATTERN                ;
 J0417                   85.958005249    1.3065104359 RES_PATTERN                ;
 J0418                    85.30183727    1.3065104359 RES_PATTERN                ;
 J0419                   111.54855643    1.3065104359 RES_PATTERN                ;
 J0420                   66.601049869    1.3065104359 RES_PATTERN                ;